file 18487670 1539763796                                        
version 2
run General-0-20181017-10:09:48-21411
attr configname General
attr datetime 20181017-10:09:48
attr experiment General
attr inifile es1.ini
attr iterationvars ""
attr iterationvarsf ""
attr measurement ""
attr network ch
attr processid 21411
attr repetition 0
attr replication #0
attr resultdir results
attr runnumber 0
attr seedset 0
param **.sorgente.interArrivalTime exponential(4.25s)
param **.server.serviceTime exponential(3s)

vector 0 ch.pozzo lifeTime:vector ETV
attr interpolationmode none
attr title "lifetime of arrived jobs, vector"
attr unit s
vector 1 ch.server queueLength:vector ETV
attr interpolationmode sample-hold
attr title "queue length, vector"
1	678 1011443 94332 186973 100007.91363593189 197419.694702176542 32768 0 23 93504 520636
0	1012121 1445069 94328 225400 100006.909297303832 238592.126226888173 32768 0.000590517093 71.362807905203 320091.79482355 6057002.6267999
1	2457190 1012819 186976 281625 197422.595641498419 298631.054123622851 32768 0 18 85900 425740
0	3470009 1446982 225402 356476 238592.752967048588 378560.807568442481 32768 0.000176386971 92.838197128045 333418.8450692 6846098.2984522
1	4916991 1013494 281628 374218 298638.91010636205 397509.51810717686 32768 0 27 99582 633928
1	5930485 1013543 374219 466357 397519.103649190749 495742.889139673083 32768 0 22 96120 553220
0	6944028 1446717 356478 487542 378561.369233225464 518633.35790705245 32768 0.00046991372 70.608337125124 332492.50298471 6585521.1586955
1	8390745 1012802 466360 561210 495743.598518963507 598119.749211418316 32768 0 17 85516 417340
0	9403547 1446215 487550 618616 518639.761039527535 659349.803928213757 32768 5.9686729e-05 71.048599953623 308730.03542647 5552728.1751322
1	10849762 1013072 561212 655266 598119.804413475384 698326.308902240773 32768 0 21 86844 445608
1	11862834 1013504 655267 747181 698328.11531284943 795806.122115729441 32768 0 28 95968 594068
0	12876338 1446750 618618 749688 659349.859516904143 798546.415675754187 32768 4.3883077e-05 108.69151668954 332512.21579558 6937656.4357465
1	14323088 1013835 747183 840237 795811.431763547223 895254.388441636473 32768 0 24 99060 629252
0	15336923 1446672 749692 880758 798547.289839218069 938280.146941065786 32768 0.000166249877 85.825869195411 337792.71520753 7212248.3668482
1	16783595 1013281 840240 934217 895255.198540241506 995236.412450179531 32768 0 25 92754 538280
0	17796876 640439 880764 938806 938282.968433166492 999999.993081371566 14512 0.000504937605 76.971157991316 144874.5822147 3007492.352648
1	18437315 50354 934219 938805 995241.387506732136 999999.993081371566 1630 0 10 3885 15567

